<?xml version="1.0" encoding="UTF-8"?>
<!-- generated on 2022-03-25 04:01:26.442532 by randomTrips.py v1_12_0+0000-800cb422fa4
  options: -n Manhattan5x3.net.xml -e 1000 -o trips.trips.xml <doubleminus>period 0.4
-->
<routes xmlns:xsi="http://www.w3.org/2001/XMLSchema-instance" xsi:noNamespaceSchemaLocation="http://sumo.dlr.de/xsd/routes_file.xsd">
    <trip id="0" depart="0.00" from="D0D1" to="A0B0"/>
    <trip id="1" depart="0.40" from="B1B2" to="B0C0"/>
    <trip id="2" depart="0.80" from="D1D2" to="D0E0"/>
    <trip id="3" depart="1.20" from="E1D1" to="A1A2"/>
    <trip id="4" depart="1.60" from="C0C1" to="A0B0"/>
    <trip id="5" depart="2.00" from="B0C0" to="C1C2"/>
    <trip id="6" depart="2.40" from="A0B0" to="B0B1"/>
    <trip id="7" depart="2.80" from="D0D1" to="C1D1"/>
    <trip id="8" depart="3.20" from="B0C0" to="C2C1"/>
    <trip id="9" depart="3.60" from="D2D1" to="A0A1"/>
    <trip id="10" depart="4.00" from="D2D1" to="D1C1"/>
    <trip id="11" depart="4.40" from="B2A2" to="A2B2"/>
    <trip id="12" depart="4.80" from="E2D2" to="B2A2"/>
    <trip id="13" depart="5.20" from="A1B1" to="A1B1"/>
    <trip id="14" depart="5.60" from="E0D0" to="C2D2"/>
    <trip id="15" depart="6.00" from="D2D1" to="D1D2"/>
    <trip id="16" depart="6.40" from="C1D1" to="E2D2"/>
    <trip id="17" depart="6.80" from="B2C2" to="C2B2"/>
    <trip id="18" depart="7.20" from="D2E2" to="D0C0"/>
    <trip id="19" depart="7.60" from="E0D0" to="C2C1"/>
    <trip id="20" depart="8.00" from="D1D0" to="A1A0"/>
    <trip id="21" depart="8.40" from="B1A1" to="B1B2"/>
    <trip id="22" depart="8.80" from="A1A2" to="B1A1"/>
    <trip id="23" depart="9.20" from="A1B1" to="B1B2"/>
    <trip id="24" depart="9.60" from="D0C0" to="B2C2"/>
    <trip id="25" depart="10.00" from="B2C2" to="B0C0"/>
    <trip id="26" depart="10.40" from="B1B0" to="E1E2"/>
    <trip id="27" depart="10.80" from="D0D1" to="C2D2"/>
    <trip id="28" depart="11.20" from="B0A0" to="D1D2"/>
    <trip id="29" depart="11.60" from="B0A0" to="B2C2"/>
    <trip id="30" depart="12.00" from="E2E1" to="D0D1"/>
    <trip id="31" depart="12.40" from="C2B2" to="D1C1"/>
    <trip id="32" depart="12.80" from="E0D0" to="D2C2"/>
    <trip id="33" depart="13.20" from="B1A1" to="A0B0"/>
    <trip id="34" depart="13.60" from="B1C1" to="B1B0"/>
    <trip id="35" depart="14.00" from="B0C0" to="E1E2"/>
    <trip id="36" depart="14.40" from="E0E1" to="B1C1"/>
    <trip id="37" depart="14.80" from="D0D1" to="C0B0"/>
    <trip id="38" depart="15.20" from="E1E0" to="C1B1"/>
    <trip id="39" depart="15.60" from="B1B0" to="B1A1"/>
    <trip id="40" depart="16.00" from="C2B2" to="B1B0"/>
    <trip id="41" depart="16.40" from="C2C1" to="E1D1"/>
    <trip id="42" depart="16.80" from="C0B0" to="B0C0"/>
    <trip id="43" depart="17.20" from="E2E1" to="C1C2"/>
    <trip id="44" depart="17.60" from="A1B1" to="A1A0"/>
    <trip id="45" depart="18.00" from="A1B1" to="D0C0"/>
    <trip id="46" depart="18.40" from="D2C2" to="C0C1"/>
    <trip id="47" depart="18.80" from="A1A0" to="B2C2"/>
    <trip id="48" depart="19.20" from="E2E1" to="C1D1"/>
    <trip id="49" depart="19.60" from="E2D2" to="E0D0"/>
    <trip id="50" depart="20.00" from="A0A1" to="D1D0"/>
    <trip id="51" depart="20.40" from="D0E0" to="C1D1"/>
    <trip id="52" depart="20.80" from="B1B0" to="D0D1"/>
    <trip id="53" depart="21.20" from="A1B1" to="C0D0"/>
    <trip id="54" depart="21.60" from="C0D0" to="E1E2"/>
    <trip id="55" depart="22.00" from="E0E1" to="B1B0"/>
    <trip id="56" depart="22.40" from="C1C2" to="B0A0"/>
    <trip id="57" depart="22.80" from="E1E0" to="E0E1"/>
    <trip id="58" depart="23.20" from="B1C1" to="D0D1"/>
    <trip id="59" depart="23.60" from="C2D2" to="A2B2"/>
    <trip id="60" depart="24.00" from="D1E1" to="C1D1"/>
    <trip id="61" depart="24.40" from="D2C2" to="C1D1"/>
    <trip id="62" depart="24.80" from="A0A1" to="B2A2"/>
    <trip id="63" depart="25.20" from="A0A1" to="E1E0"/>
    <trip id="64" depart="25.60" from="E0E1" to="D2E2"/>
    <trip id="65" depart="26.00" from="B1C1" to="A1A0"/>
    <trip id="66" depart="26.40" from="E0E1" to="E1E2"/>
    <trip id="67" depart="26.80" from="A1A2" to="C1C0"/>
    <trip id="68" depart="27.20" from="A1A2" to="D1E1"/>
    <trip id="69" depart="27.60" from="D1E1" to="A2A1"/>
    <trip id="70" depart="28.00" from="C1B1" to="C2B2"/>
    <trip id="71" depart="28.40" from="B1B0" to="E0E1"/>
    <trip id="72" depart="28.80" from="C0C1" to="B0C0"/>
    <trip id="73" depart="29.20" from="C1D1" to="D1D2"/>
    <trip id="74" depart="29.60" from="B0B1" to="B1C1"/>
    <trip id="75" depart="30.00" from="E2E1" to="D0D1"/>
    <trip id="76" depart="30.40" from="C0D0" to="C1C2"/>
    <trip id="77" depart="30.80" from="A2A1" to="B0C0"/>
    <trip id="78" depart="31.20" from="B2A2" to="C2C1"/>
    <trip id="79" depart="31.60" from="B1A1" to="B0C0"/>
    <trip id="80" depart="32.00" from="A1A2" to="D0C0"/>
    <trip id="81" depart="32.40" from="B1A1" to="E1D1"/>
    <trip id="82" depart="32.80" from="E0D0" to="A1A2"/>
    <trip id="83" depart="33.20" from="B1A1" to="D0E0"/>
    <trip id="84" depart="33.60" from="B0C0" to="A2A1"/>
    <trip id="85" depart="34.00" from="E1E2" to="C2C1"/>
    <trip id="86" depart="34.40" from="C1B1" to="D2C2"/>
    <trip id="87" depart="34.80" from="D2D1" to="B0B1"/>
    <trip id="88" depart="35.20" from="A1B1" to="C0C1"/>
    <trip id="89" depart="35.60" from="C0C1" to="C1B1"/>
    <trip id="90" depart="36.00" from="D1D2" to="D0E0"/>
    <trip id="91" depart="36.40" from="E2E1" to="A1B1"/>
    <trip id="92" depart="36.80" from="C0B0" to="B2A2"/>
    <trip id="93" depart="37.20" from="E0D0" to="B1A1"/>
    <trip id="94" depart="37.60" from="B0B1" to="C0D0"/>
    <trip id="95" depart="38.00" from="C0C1" to="B1B2"/>
    <trip id="96" depart="38.40" from="B1A1" to="E1E0"/>
    <trip id="97" depart="38.80" from="C0D0" to="E0D0"/>
    <trip id="98" depart="39.20" from="C2B2" to="A1A0"/>
    <trip id="99" depart="39.60" from="E2E1" to="D2E2"/>
    <trip id="100" depart="40.00" from="E2D2" to="E1E0"/>
    <trip id="101" depart="40.40" from="E0D0" to="B0A0"/>
    <trip id="102" depart="40.80" from="C1C0" to="B0C0"/>
    <trip id="103" depart="41.20" from="C0B0" to="A1A0"/>
    <trip id="104" depart="41.60" from="B2C2" to="E2E1"/>
    <trip id="105" depart="42.00" from="B1B0" to="D2C2"/>
    <trip id="106" depart="42.40" from="C1B1" to="C0C1"/>
    <trip id="107" depart="42.80" from="E2D2" to="E2E1"/>
    <trip id="108" depart="43.20" from="C2B2" to="D1D0"/>
    <trip id="109" depart="43.60" from="A2B2" to="B1C1"/>
    <trip id="110" depart="44.00" from="E2D2" to="C2C1"/>
    <trip id="111" depart="44.40" from="C1D1" to="D1D2"/>
    <trip id="112" depart="44.80" from="A1A0" to="C2C1"/>
    <trip id="113" depart="45.20" from="C1C2" to="E0D0"/>
    <trip id="114" depart="45.60" from="A2B2" to="E2D2"/>
    <trip id="115" depart="46.00" from="A1A2" to="B0B1"/>
    <trip id="116" depart="46.40" from="C2D2" to="D0E0"/>
    <trip id="117" depart="46.80" from="B1A1" to="A2A1"/>
    <trip id="118" depart="47.20" from="E1D1" to="B1A1"/>
    <trip id="119" depart="47.60" from="C2D2" to="D0C0"/>
    <trip id="120" depart="48.00" from="C0C1" to="C2C1"/>
    <trip id="121" depart="48.40" from="C1D1" to="E1E2"/>
    <trip id="122" depart="48.80" from="B0B1" to="D1D0"/>
    <trip id="123" depart="49.20" from="B1A1" to="C0B0"/>
    <trip id="124" depart="49.60" from="D0E0" to="B1C1"/>
    <trip id="125" depart="50.00" from="B1C1" to="D1E1"/>
    <trip id="126" depart="50.40" from="A1A2" to="C1B1"/>
    <trip id="127" depart="50.80" from="E2E1" to="E2E1"/>
    <trip id="128" depart="51.20" from="A1A2" to="B0C0"/>
    <trip id="129" depart="51.60" from="B1B0" to="E1E2"/>
    <trip id="130" depart="52.00" from="E0E1" to="E0E1"/>
    <trip id="131" depart="52.40" from="B2C2" to="A2B2"/>
    <trip id="132" depart="52.80" from="D2E2" to="D1C1"/>
    <trip id="133" depart="53.20" from="C2D2" to="E2E1"/>
    <trip id="134" depart="53.60" from="D0D1" to="A0A1"/>
    <trip id="135" depart="54.00" from="D2D1" to="B1C1"/>
    <trip id="136" depart="54.40" from="D0E0" to="E1E2"/>
    <trip id="137" depart="54.80" from="A2A1" to="A2A1"/>
    <trip id="138" depart="55.20" from="A1B1" to="C2B2"/>
    <trip id="139" depart="55.60" from="B1B0" to="C2D2"/>
    <trip id="140" depart="56.00" from="D1D0" to="B0B1"/>
    <trip id="141" depart="56.40" from="D0C0" to="B1B0"/>
    <trip id="142" depart="56.80" from="C1C0" to="E1D1"/>
    <trip id="143" depart="57.20" from="E0D0" to="A1B1"/>
    <trip id="144" depart="57.60" from="C0C1" to="B1B2"/>
    <trip id="145" depart="58.00" from="A0A1" to="D1E1"/>
    <trip id="146" depart="58.40" from="D0D1" to="B1B0"/>
    <trip id="147" depart="58.80" from="D1D2" to="C2B2"/>
    <trip id="148" depart="59.20" from="C0C1" to="A0A1"/>
    <trip id="149" depart="59.60" from="A1A2" to="E0E1"/>
    <trip id="150" depart="60.00" from="E1D1" to="C2B2"/>
    <trip id="151" depart="60.40" from="D2E2" to="C2C1"/>
    <trip id="152" depart="60.80" from="A2B2" to="A2A1"/>
    <trip id="153" depart="61.20" from="B1C1" to="E1D1"/>
    <trip id="154" depart="61.60" from="D2D1" to="E0D0"/>
    <trip id="155" depart="62.00" from="E1D1" to="B0C0"/>
    <trip id="156" depart="62.40" from="B1A1" to="A1B1"/>
    <trip id="157" depart="62.80" from="D2C2" to="E0E1"/>
    <trip id="158" depart="63.20" from="C0B0" to="D0C0"/>
    <trip id="159" depart="63.60" from="A2B2" to="E1E0"/>
    <trip id="160" depart="64.00" from="E0E1" to="E2D2"/>
    <trip id="161" depart="64.40" from="D2D1" to="E0E1"/>
    <trip id="162" depart="64.80" from="A0B0" to="D1D2"/>
    <trip id="163" depart="65.20" from="B2A2" to="E1E0"/>
    <trip id="164" depart="65.60" from="D2D1" to="E0E1"/>
    <trip id="165" depart="66.00" from="D2D1" to="B1B0"/>
    <trip id="166" depart="66.40" from="D2C2" to="A1B1"/>
    <trip id="167" depart="66.80" from="E0E1" to="E0D0"/>
    <trip id="168" depart="67.20" from="B0C0" to="D2D1"/>
    <trip id="169" depart="67.60" from="C1B1" to="B1C1"/>
    <trip id="170" depart="68.00" from="D2C2" to="B1A1"/>
    <trip id="171" depart="68.40" from="A0B0" to="B0B1"/>
    <trip id="172" depart="68.80" from="B2A2" to="E0E1"/>
    <trip id="173" depart="69.20" from="E2D2" to="B1B2"/>
    <trip id="174" depart="69.60" from="D0D1" to="C0B0"/>
    <trip id="175" depart="70.00" from="E2E1" to="C1D1"/>
    <trip id="176" depart="70.40" from="E1E2" to="A2A1"/>
    <trip id="177" depart="70.80" from="E2D2" to="B0A0"/>
    <trip id="178" depart="71.20" from="E2D2" to="B1B0"/>
    <trip id="179" depart="71.60" from="A1B1" to="C0D0"/>
    <trip id="180" depart="72.00" from="D1D2" to="B1C1"/>
    <trip id="181" depart="72.40" from="C2D2" to="C1C2"/>
    <trip id="182" depart="72.80" from="B2C2" to="C2C1"/>
    <trip id="183" depart="73.20" from="B1B0" to="D1D0"/>
    <trip id="184" depart="73.60" from="A0A1" to="E1E0"/>
    <trip id="185" depart="74.00" from="C1D1" to="D1D0"/>
    <trip id="186" depart="74.40" from="D1D2" to="D0E0"/>
    <trip id="187" depart="74.80" from="B2C2" to="A1A2"/>
    <trip id="188" depart="75.20" from="D0E0" to="B2A2"/>
    <trip id="189" depart="75.60" from="B1C1" to="E0D0"/>
    <trip id="190" depart="76.00" from="D1D0" to="B1C1"/>
    <trip id="191" depart="76.40" from="B1C1" to="C0B0"/>
    <trip id="192" depart="76.80" from="C0B0" to="B1C1"/>
    <trip id="193" depart="77.20" from="A2A1" to="C0C1"/>
    <trip id="194" depart="77.60" from="E1E2" to="D0E0"/>
    <trip id="195" depart="78.00" from="E1D1" to="D0C0"/>
    <trip id="196" depart="78.40" from="B1C1" to="C2B2"/>
    <trip id="197" depart="78.80" from="A0A1" to="B1B2"/>
    <trip id="198" depart="79.20" from="C0C1" to="C2C1"/>
    <trip id="199" depart="79.60" from="D0D1" to="C1B1"/>
    <trip id="200" depart="80.00" from="C0D0" to="B0C0"/>
    <trip id="201" depart="80.40" from="C1B1" to="E1D1"/>
    <trip id="202" depart="80.80" from="D2D1" to="B0A0"/>
    <trip id="203" depart="81.20" from="A1A2" to="C1C2"/>
    <trip id="204" depart="81.60" from="D0C0" to="B2A2"/>
    <trip id="205" depart="82.00" from="D2E2" to="D1E1"/>
    <trip id="206" depart="82.40" from="D0E0" to="B0C0"/>
    <trip id="207" depart="82.80" from="B0B1" to="A0B0"/>
    <trip id="208" depart="83.20" from="B1A1" to="C1B1"/>
    <trip id="209" depart="83.60" from="E0D0" to="A1A2"/>
    <trip id="210" depart="84.00" from="C0C1" to="D0C0"/>
    <trip id="211" depart="84.40" from="B0B1" to="D1C1"/>
    <trip id="212" depart="84.80" from="C1C0" to="B1A1"/>
    <trip id="213" depart="85.20" from="D0D1" to="A0A1"/>
    <trip id="214" depart="85.60" from="D1E1" to="D1E1"/>
    <trip id="215" depart="86.00" from="A1B1" to="C0C1"/>
    <trip id="216" depart="86.40" from="B0A0" to="E2D2"/>
    <trip id="217" depart="86.80" from="C1C2" to="A1A0"/>
    <trip id="218" depart="87.20" from="B1A1" to="E0D0"/>
    <trip id="219" depart="87.60" from="C1B1" to="D2D1"/>
    <trip id="220" depart="88.00" from="D0E0" to="E2E1"/>
    <trip id="221" depart="88.40" from="C2D2" to="E1E2"/>
    <trip id="222" depart="88.80" from="E1D1" to="C2D2"/>
    <trip id="223" depart="89.20" from="D1D0" to="C1C2"/>
    <trip id="224" depart="89.60" from="D2E2" to="C2B2"/>
    <trip id="225" depart="90.00" from="E1D1" to="D1D2"/>
    <trip id="226" depart="90.40" from="C1B1" to="B1B0"/>
    <trip id="227" depart="90.80" from="B1A1" to="D0D1"/>
    <trip id="228" depart="91.20" from="D1E1" to="C1C2"/>
    <trip id="229" depart="91.60" from="D0C0" to="B1B2"/>
    <trip id="230" depart="92.00" from="A1A2" to="B1B2"/>
    <trip id="231" depart="92.40" from="B1B0" to="B2A2"/>
    <trip id="232" depart="92.80" from="C1D1" to="A2B2"/>
    <trip id="233" depart="93.20" from="B1A1" to="D1C1"/>
    <trip id="234" depart="93.60" from="D1D0" to="A1A0"/>
    <trip id="235" depart="94.00" from="C0B0" to="C1D1"/>
    <trip id="236" depart="94.40" from="C0C1" to="B0C0"/>
    <trip id="237" depart="94.80" from="C0C1" to="E1D1"/>
    <trip id="238" depart="95.20" from="C2C1" to="D1C1"/>
    <trip id="239" depart="95.60" from="E0D0" to="D1E1"/>
    <trip id="240" depart="96.00" from="B2C2" to="A0A1"/>
    <trip id="241" depart="96.40" from="B2B1" to="D1E1"/>
    <trip id="242" depart="96.80" from="E0D0" to="E1E2"/>
    <trip id="243" depart="97.20" from="C0C1" to="D1D2"/>
    <trip id="244" depart="97.60" from="C2B2" to="C2D2"/>
    <trip id="245" depart="98.00" from="B0C0" to="B0C0"/>
    <trip id="246" depart="98.40" from="C0D0" to="A0B0"/>
    <trip id="247" depart="98.80" from="B2A2" to="D0E0"/>
    <trip id="248" depart="99.20" from="C0B0" to="B0A0"/>
    <trip id="249" depart="99.60" from="C1B1" to="A2A1"/>
    <trip id="250" depart="100.00" from="D0C0" to="A0B0"/>
    <trip id="251" depart="100.40" from="C0B0" to="C2B2"/>
    <trip id="252" depart="100.80" from="A0B0" to="D0D1"/>
    <trip id="253" depart="101.20" from="A2A1" to="C1B1"/>
    <trip id="254" depart="101.60" from="A1A0" to="B2C2"/>
    <trip id="255" depart="102.00" from="B0C0" to="B2A2"/>
    <trip id="256" depart="102.40" from="D1E1" to="B2C2"/>
    <trip id="257" depart="102.80" from="D1E1" to="D2E2"/>
    <trip id="258" depart="103.20" from="B1B0" to="A1A2"/>
    <trip id="259" depart="103.60" from="A0A1" to="C1D1"/>
    <trip id="260" depart="104.00" from="E2E1" to="B2B1"/>
    <trip id="261" depart="104.40" from="D0D1" to="D2C2"/>
    <trip id="262" depart="104.80" from="D0D1" to="D1E1"/>
    <trip id="263" depart="105.20" from="E1E2" to="B0B1"/>
    <trip id="264" depart="105.60" from="A0A1" to="A2B2"/>
    <trip id="265" depart="106.00" from="A2A1" to="D0E0"/>
    <trip id="266" depart="106.40" from="C2B2" to="B0C0"/>
    <trip id="267" depart="106.80" from="D1C1" to="D1E1"/>
    <trip id="268" depart="107.20" from="B0A0" to="C2D2"/>
    <trip id="269" depart="107.60" from="D1D2" to="A2A1"/>
    <trip id="270" depart="108.00" from="D2E2" to="E2D2"/>
    <trip id="271" depart="108.40" from="A1B1" to="A0B0"/>
    <trip id="272" depart="108.80" from="B1C1" to="D0E0"/>
    <trip id="273" depart="109.20" from="E2D2" to="C0B0"/>
    <trip id="274" depart="109.60" from="D1D0" to="A1A2"/>
    <trip id="275" depart="110.00" from="D1C1" to="D0C0"/>
    <trip id="276" depart="110.40" from="A1B1" to="D1E1"/>
    <trip id="277" depart="110.80" from="E0D0" to="C2D2"/>
    <trip id="278" depart="111.20" from="A2A1" to="E2E1"/>
    <trip id="279" depart="111.60" from="D2C2" to="B2B1"/>
    <trip id="280" depart="112.00" from="C0C1" to="B2C2"/>
    <trip id="281" depart="112.40" from="C1C2" to="B2B1"/>
    <trip id="282" depart="112.80" from="E0D0" to="D2E2"/>
    <trip id="283" depart="113.20" from="A1B1" to="E2D2"/>
    <trip id="284" depart="113.60" from="D0C0" to="D2E2"/>
    <trip id="285" depart="114.00" from="D1D0" to="C0D0"/>
    <trip id="286" depart="114.40" from="D1D2" to="E2D2"/>
    <trip id="287" depart="114.80" from="B1B0" to="D2D1"/>
    <trip id="288" depart="115.20" from="C1D1" to="C1C0"/>
    <trip id="289" depart="115.60" from="C0D0" to="D1D2"/>
    <trip id="290" depart="116.00" from="B1B0" to="E0D0"/>
    <trip id="291" depart="116.40" from="D2E2" to="A1A2"/>
    <trip id="292" depart="116.80" from="E0E1" to="B1A1"/>
    <trip id="293" depart="117.20" from="C1B1" to="C2D2"/>
    <trip id="294" depart="117.60" from="B2C2" to="A0B0"/>
    <trip id="295" depart="118.00" from="E0D0" to="B0B1"/>
    <trip id="296" depart="118.40" from="B0C0" to="D2D1"/>
    <trip id="297" depart="118.80" from="B2A2" to="E0E1"/>
    <trip id="298" depart="119.20" from="D1C1" to="B1B2"/>
    <trip id="299" depart="119.60" from="A0A1" to="E1E2"/>
    <trip id="300" depart="120.00" from="A1A2" to="D1D0"/>
    <trip id="301" depart="120.40" from="C1C0" to="D1E1"/>
    <trip id="302" depart="120.80" from="D1C1" to="D0D1"/>
    <trip id="303" depart="121.20" from="C1C0" to="D2C2"/>
    <trip id="304" depart="121.60" from="A1B1" to="B0C0"/>
    <trip id="305" depart="122.00" from="D1C1" to="B1C1"/>
    <trip id="306" depart="122.40" from="C2C1" to="C1B1"/>
    <trip id="307" depart="122.80" from="C1D1" to="C0C1"/>
    <trip id="308" depart="123.20" from="D1D2" to="B2A2"/>
    <trip id="309" depart="123.60" from="D1C1" to="B1B0"/>
    <trip id="310" depart="124.00" from="B1B0" to="A2A1"/>
    <trip id="311" depart="124.40" from="B0B1" to="A2A1"/>
    <trip id="312" depart="124.80" from="C1D1" to="D1E1"/>
    <trip id="313" depart="125.20" from="B0B1" to="B0C0"/>
    <trip id="314" depart="125.60" from="C1C0" to="D1D0"/>
    <trip id="315" depart="126.00" from="E2D2" to="C1D1"/>
    <trip id="316" depart="126.40" from="B1B2" to="A1B1"/>
    <trip id="317" depart="126.80" from="B0B1" to="B1A1"/>
    <trip id="318" depart="127.20" from="B0A0" to="A0A1"/>
    <trip id="319" depart="127.60" from="C1D1" to="B1B2"/>
    <trip id="320" depart="128.00" from="E2D2" to="C2B2"/>
    <trip id="321" depart="128.40" from="D1C1" to="A2A1"/>
    <trip id="322" depart="128.80" from="E0E1" to="C1C0"/>
    <trip id="323" depart="129.20" from="E0E1" to="C2C1"/>
    <trip id="324" depart="129.60" from="C1B1" to="C0D0"/>
    <trip id="325" depart="130.00" from="B0B1" to="A1A0"/>
    <trip id="326" depart="130.40" from="E1E2" to="C1C0"/>
    <trip id="327" depart="130.80" from="D2E2" to="C0B0"/>
    <trip id="328" depart="131.20" from="A1A2" to="D0C0"/>
    <trip id="329" depart="131.60" from="A1A0" to="A2B2"/>
    <trip id="330" depart="132.00" from="C2B2" to="B1C1"/>
    <trip id="331" depart="132.40" from="E2E1" to="A2A1"/>
    <trip id="332" depart="132.80" from="D1E1" to="C2D2"/>
    <trip id="333" depart="133.20" from="D2C2" to="B0C0"/>
    <trip id="334" depart="133.60" from="C1C2" to="C0D0"/>
    <trip id="335" depart="134.00" from="C0D0" to="E0D0"/>
    <trip id="336" depart="134.40" from="E2E1" to="B1C1"/>
    <trip id="337" depart="134.80" from="D0C0" to="C2D2"/>
    <trip id="338" depart="135.20" from="D1D2" to="E1E2"/>
    <trip id="339" depart="135.60" from="B0C0" to="B0C0"/>
    <trip id="340" depart="136.00" from="D0E0" to="A2B2"/>
    <trip id="341" depart="136.40" from="B0A0" to="A1A2"/>
    <trip id="342" depart="136.80" from="A0A1" to="C0D0"/>
    <trip id="343" depart="137.20" from="C2D2" to="B1B2"/>
    <trip id="344" depart="137.60" from="B1A1" to="D1D0"/>
    <trip id="345" depart="138.00" from="D1C1" to="C0D0"/>
    <trip id="346" depart="138.40" from="D1C1" to="E1E0"/>
    <trip id="347" depart="138.80" from="D2C2" to="D0C0"/>
    <trip id="348" depart="139.20" from="D0E0" to="E1E2"/>
    <trip id="349" depart="139.60" from="C0C1" to="C1D1"/>
    <trip id="350" depart="140.00" from="D0D1" to="E1D1"/>
    <trip id="351" depart="140.40" from="D2E2" to="A1A2"/>
    <trip id="352" depart="140.80" from="B0A0" to="B1C1"/>
    <trip id="353" depart="141.20" from="D1D2" to="C2C1"/>
    <trip id="354" depart="141.60" from="B1B2" to="A2A1"/>
    <trip id="355" depart="142.00" from="D1C1" to="D1C1"/>
    <trip id="356" depart="142.40" from="E1E2" to="C1C2"/>
    <trip id="357" depart="142.80" from="C1C0" to="A1A2"/>
    <trip id="358" depart="143.20" from="A0B0" to="C0D0"/>
    <trip id="359" depart="143.60" from="B2A2" to="B1B0"/>
    <trip id="360" depart="144.00" from="A1B1" to="E2D2"/>
    <trip id="361" depart="144.40" from="D2E2" to="C2C1"/>
    <trip id="362" depart="144.80" from="E1E2" to="E2E1"/>
    <trip id="363" depart="145.20" from="D0E0" to="B1B0"/>
    <trip id="364" depart="145.60" from="A0B0" to="D1E1"/>
    <trip id="365" depart="146.00" from="C1B1" to="D0D1"/>
    <trip id="366" depart="146.40" from="E1E0" to="B0A0"/>
    <trip id="367" depart="146.80" from="C2C1" to="D0C0"/>
    <trip id="368" depart="147.20" from="C1C0" to="A1B1"/>
    <trip id="369" depart="147.60" from="B2B1" to="B2A2"/>
    <trip id="370" depart="148.00" from="D0E0" to="E0D0"/>
    <trip id="371" depart="148.40" from="B2A2" to="D1C1"/>
    <trip id="372" depart="148.80" from="B1B2" to="E1E2"/>
    <trip id="373" depart="149.20" from="D2D1" to="C2B2"/>
    <trip id="374" depart="149.60" from="C1B1" to="B1C1"/>
    <trip id="375" depart="150.00" from="B2A2" to="E2D2"/>
    <trip id="376" depart="150.40" from="C0B0" to="C1C2"/>
    <trip id="377" depart="150.80" from="E2E1" to="D0D1"/>
    <trip id="378" depart="151.20" from="C1D1" to="C0C1"/>
    <trip id="379" depart="151.60" from="B0B1" to="B2B1"/>
    <trip id="380" depart="152.00" from="D1E1" to="D0C0"/>
    <trip id="381" depart="152.40" from="D1E1" to="B0B1"/>
    <trip id="382" depart="152.80" from="C2B2" to="E1E0"/>
    <trip id="383" depart="153.20" from="C0D0" to="D1C1"/>
    <trip id="384" depart="153.60" from="A2A1" to="E2D2"/>
    <trip id="385" depart="154.00" from="C2D2" to="B1A1"/>
    <trip id="386" depart="154.40" from="A2B2" to="C2B2"/>
    <trip id="387" depart="154.80" from="C2B2" to="A1B1"/>
    <trip id="388" depart="155.20" from="E2E1" to="E1E0"/>
    <trip id="389" depart="155.60" from="C1B1" to="A2A1"/>
    <trip id="390" depart="156.00" from="D2E2" to="C1C0"/>
    <trip id="391" depart="156.40" from="D1D0" to="C1C2"/>
    <trip id="392" depart="156.80" from="B1B2" to="D2E2"/>
    <trip id="393" depart="157.20" from="E2E1" to="B1A1"/>
    <trip id="394" depart="157.60" from="C2B2" to="B2C2"/>
    <trip id="395" depart="158.00" from="E1E0" to="C1C2"/>
    <trip id="396" depart="158.40" from="E0E1" to="E0E1"/>
    <trip id="397" depart="158.80" from="B1B2" to="D2C2"/>
    <trip id="398" depart="159.20" from="C0C1" to="E1E2"/>
    <trip id="399" depart="159.60" from="C1C2" to="D2E2"/>
    <trip id="400" depart="160.00" from="B1B2" to="B1C1"/>
    <trip id="401" depart="160.40" from="C2C1" to="E2E1"/>
    <trip id="402" depart="160.80" from="C1C0" to="A2B2"/>
    <trip id="403" depart="161.20" from="C1D1" to="B2B1"/>
    <trip id="404" depart="161.60" from="C2B2" to="C1D1"/>
    <trip id="405" depart="162.00" from="C1B1" to="B2A2"/>
    <trip id="406" depart="162.40" from="B0B1" to="D1C1"/>
    <trip id="407" depart="162.80" from="C2C1" to="B1A1"/>
    <trip id="408" depart="163.20" from="D2C2" to="A0B0"/>
    <trip id="409" depart="163.60" from="D1D2" to="D1D0"/>
    <trip id="410" depart="164.00" from="D2D1" to="B2C2"/>
    <trip id="411" depart="164.40" from="D0E0" to="D2E2"/>
    <trip id="412" depart="164.80" from="E2E1" to="C1C0"/>
    <trip id="413" depart="165.20" from="A0B0" to="C1C2"/>
    <trip id="414" depart="165.60" from="C2C1" to="E0E1"/>
    <trip id="415" depart="166.00" from="E0E1" to="C0D0"/>
    <trip id="416" depart="166.40" from="C1D1" to="C1B1"/>
    <trip id="417" depart="166.80" from="D1D0" to="C0C1"/>
    <trip id="418" depart="167.20" from="D0D1" to="A2B2"/>
    <trip id="419" depart="167.60" from="C1B1" to="E2D2"/>
    <trip id="420" depart="168.00" from="B2A2" to="D1C1"/>
    <trip id="421" depart="168.40" from="D0D1" to="E0D0"/>
    <trip id="422" depart="168.80" from="E0D0" to="E0D0"/>
    <trip id="423" depart="169.20" from="B2C2" to="B1C1"/>
    <trip id="424" depart="169.60" from="D1D0" to="D1E1"/>
    <trip id="425" depart="170.00" from="E0E1" to="A0B0"/>
    <trip id="426" depart="170.40" from="A1A2" to="D0C0"/>
    <trip id="427" depart="170.80" from="E1E0" to="E2E1"/>
    <trip id="428" depart="171.20" from="D1D2" to="C0D0"/>
    <trip id="429" depart="171.60" from="A1B1" to="D0C0"/>
    <trip id="430" depart="172.00" from="E0E1" to="C0D0"/>
    <trip id="431" depart="172.40" from="D1C1" to="E1D1"/>
    <trip id="432" depart="172.80" from="A1A0" to="D2D1"/>
    <trip id="433" depart="173.20" from="B1B2" to="B2C2"/>
    <trip id="434" depart="173.60" from="A2B2" to="C1D1"/>
    <trip id="435" depart="174.00" from="C2B2" to="D2C2"/>
    <trip id="436" depart="174.40" from="B0A0" to="A1A2"/>
    <trip id="437" depart="174.80" from="E0E1" to="D0C0"/>
    <trip id="438" depart="175.20" from="B1A1" to="E1E0"/>
    <trip id="439" depart="175.60" from="A2B2" to="C1B1"/>
    <trip id="440" depart="176.00" from="B1B0" to="B1B0"/>
    <trip id="441" depart="176.40" from="A0A1" to="D2D1"/>
    <trip id="442" depart="176.80" from="E1D1" to="D0E0"/>
    <trip id="443" depart="177.20" from="A2B2" to="C0D0"/>
    <trip id="444" depart="177.60" from="B2B1" to="C2C1"/>
    <trip id="445" depart="178.00" from="D0D1" to="C0C1"/>
    <trip id="446" depart="178.40" from="B1B0" to="E0D0"/>
    <trip id="447" depart="178.80" from="B0B1" to="B2C2"/>
    <trip id="448" depart="179.20" from="C1C0" to="B1A1"/>
    <trip id="449" depart="179.60" from="C2C1" to="C2C1"/>
    <trip id="450" depart="180.00" from="E2E1" to="B1B2"/>
    <trip id="451" depart="180.40" from="E2E1" to="D0D1"/>
    <trip id="452" depart="180.80" from="B1B2" to="C2B2"/>
    <trip id="453" depart="181.20" from="D1C1" to="D1D2"/>
    <trip id="454" depart="181.60" from="A1A0" to="C2D2"/>
    <trip id="455" depart="182.00" from="C1C0" to="E1D1"/>
    <trip id="456" depart="182.40" from="B1B2" to="D2D1"/>
    <trip id="457" depart="182.80" from="C2D2" to="B2B1"/>
    <trip id="458" depart="183.20" from="D0D1" to="D0C0"/>
    <trip id="459" depart="183.60" from="D0E0" to="D1D0"/>
    <trip id="460" depart="184.00" from="D0E0" to="D2E2"/>
    <trip id="461" depart="184.40" from="D0C0" to="E1D1"/>
    <trip id="462" depart="184.80" from="D0D1" to="B1C1"/>
    <trip id="463" depart="185.20" from="C0D0" to="C2C1"/>
    <trip id="464" depart="185.60" from="D1D2" to="A1A2"/>
    <trip id="465" depart="186.00" from="B1B2" to="D1D2"/>
    <trip id="466" depart="186.40" from="B0A0" to="A2A1"/>
    <trip id="467" depart="186.80" from="C1D1" to="E2D2"/>
    <trip id="468" depart="187.20" from="C1D1" to="E1E0"/>
    <trip id="469" depart="187.60" from="D2E2" to="B1B0"/>
    <trip id="470" depart="188.00" from="D2E2" to="C1C0"/>
    <trip id="471" depart="188.40" from="D2D1" to="D1D2"/>
    <trip id="472" depart="188.80" from="B2A2" to="A2A1"/>
    <trip id="473" depart="189.20" from="E2D2" to="A2B2"/>
    <trip id="474" depart="189.60" from="E2D2" to="E0D0"/>
    <trip id="475" depart="190.00" from="D1D0" to="E2E1"/>
    <trip id="476" depart="190.40" from="E2D2" to="D2D1"/>
    <trip id="477" depart="190.80" from="B2C2" to="D2C2"/>
    <trip id="478" depart="191.20" from="A0A1" to="C1D1"/>
    <trip id="479" depart="191.60" from="C1B1" to="D0E0"/>
    <trip id="480" depart="192.00" from="D0E0" to="C2C1"/>
    <trip id="481" depart="192.40" from="D2E2" to="E1E2"/>
    <trip id="482" depart="192.80" from="A1B1" to="B1A1"/>
    <trip id="483" depart="193.20" from="A0B0" to="E0E1"/>
    <trip id="484" depart="193.60" from="C2B2" to="E1E0"/>
    <trip id="485" depart="194.00" from="B0C0" to="A1A0"/>
    <trip id="486" depart="194.40" from="D2E2" to="E1E0"/>
    <trip id="487" depart="194.80" from="B1C1" to="C0B0"/>
    <trip id="488" depart="195.20" from="A2B2" to="E1E2"/>
    <trip id="489" depart="195.60" from="B1C1" to="C1C0"/>
    <trip id="490" depart="196.00" from="A1B1" to="E1D1"/>
    <trip id="491" depart="196.40" from="A2A1" to="C0D0"/>
    <trip id="492" depart="196.80" from="D0E0" to="D1D2"/>
    <trip id="493" depart="197.20" from="E1E2" to="C0C1"/>
    <trip id="494" depart="197.60" from="D1D2" to="A2B2"/>
    <trip id="495" depart="198.00" from="C0C1" to="A1B1"/>
    <trip id="496" depart="198.40" from="C1C0" to="C0B0"/>
    <trip id="497" depart="198.80" from="E1E2" to="A0B0"/>
    <trip id="498" depart="199.20" from="B2C2" to="C0D0"/>
    <trip id="499" depart="199.60" from="E1E2" to="E0D0"/>
    <trip id="500" depart="200.00" from="A1B1" to="D1C1"/>
    <trip id="501" depart="200.40" from="C1D1" to="E2E1"/>
    <trip id="502" depart="200.80" from="B2B1" to="C0B0"/>
    <trip id="503" depart="201.20" from="B0B1" to="A2A1"/>
    <trip id="504" depart="201.60" from="E0D0" to="C1B1"/>
    <trip id="505" depart="202.00" from="D0E0" to="D0D1"/>
    <trip id="506" depart="202.40" from="C2D2" to="A0A1"/>
    <trip id="507" depart="202.80" from="D2C2" to="B1A1"/>
    <trip id="508" depart="203.20" from="A2A1" to="C2B2"/>